/*---------------------------------------------------------------------------*\
  =========                 |
  \\      /  F ield         | OpenFOAM: The Open Source CFD Toolbox
   \\    /   O peration     | Website:  https://openfoam.org
    \\  /    A nd           | Version:  8
     \\/     M anipulation  |
\*---------------------------------------------------------------------------*/
Build  : 8-1c9b5879390b
Exec   : icoFoam
Date   : Oct 21 2025
Time   : 23:26:24
Host   : "engy-asus"
PID    : 543919
I/O    : uncollated
Case   : /home/engy/OpenFOAM/engy-8/run/cavityHighRe
nProcs : 1
sigFpe : Enabling floating point exception trapping (FOAM_SIGFPE).
fileModificationChecking : Monitoring run-time modified files using timeStampMaster (fileModificationSkew 10)
allowSystemOperations : Allowing user-supplied system call operations

// * * * * * * * * * * * * * * * * * * * * * * * * * * * * * * * * * * * * * //
Create time

Create mesh for time = 2

Reading transportProperties

Reading field p

Reading field U

Reading/calculating face flux field phi


Starting time loop

End

